examples/DynaWaltz/Nordic_IslandingSurvivable/Nordic.xiidm
<?xml version="1.0" encoding="UTF-8"?>
<iidm:network xmlns:iidm="http://www.powsybl.org/schema/iidm/1_5" id="Nordic32_corrige" caseDate="2019-07-30T16:39:00.000+02:00" forecastDistance="0" sourceFormat="NF">
    <iidm:substation id="_19fe9db0-63e5-4f87-a503-0867c0a01369" country="FR" tso="RTE">
        <iidm:voltageLevel id="1011_130" nominalV="130.0" highVoltageLimit="136.5" topologyKind="BUS_BREAKER">
            <iidm:busBreakerTopology>
                <iidm:bus id="1011_131" v="144.2153157292791" angle="12.026296215472632"/>
            </iidm:busBreakerTopology>
        </iidm:voltageLevel>
        <iidm:voltageLevel id="4011_400" nominalV="400.0" highVoltageLimit="420.0" topologyKind="BUS_BREAKER">
            <iidm:busBreakerTopology>
                <iidm:bus id="4011_401" v="427.90965424395165" angle="11.935773490290693"/>
            </iidm:busBreakerTopology>
        </iidm:voltageLevel>
        <iidm:voltageLevel id="B11___20" nominalV="20.0" highVoltageLimit="21.0" topologyKind="BUS_BREAKER">
            <iidm:busBreakerTopology>
                <iidm:bus id="B11___21" v="20.984486467928548" angle="9.465816991102198"/>
            </iidm:busBreakerTopology>
            <iidm:load id="11_1" loadType="UNDEFINED" p0="199.99400329589844" q0="68.7958984375" bus="B11___21" connectableBus="B11___21" p="199.99400329589844" q="68.7958984375"/>
        </iidm:voltageLevel>
        <iidm:voltageLevel id="BG09__15" nominalV="15.0" highVoltageLimit="15.750001907348633" topologyKind="BUS_BREAKER">
            <iidm:busBreakerTopology>
                <iidm:bus id="BG09__11" v="14.981999397277832" angle="15.375383396758178"/>
            </iidm:busBreakerTopology>
            <iidm:generator id="g09" energySource="HYDRO" minP="0.0" maxP="9999.0" voltageRegulatorOn="true" targetP="401.8" targetV="14.981999397277832" targetQ="201.2519989013672" bus="BG09__11" connectableBus="BG09__11" p="-407.019984343934" q="121.16962133338049">
                <iidm:property name="genreCvg" value="AUTRE"/>
                <iidm:reactiveCapabilityCurve>
                    <iidm:point p="0.0" minQ="-1000.0" maxQ="1000.0"/>
                    <iidm:point p="9999.0" minQ="-1000.0" maxQ="1000.0"/>
                </iidm:reactiveCapabilityCurve>
            </iidm:generator>
        </iidm:voltageLevel>
        <iidm:twoWindingsTransformer id="Tr1011-4011" r="0.0" x="1.3519998788833618" g="0.0" b="0.0" ratedU1="400.0" ratedU2="130.0" voltageLevelId1="4011_400" bus1="4011_401" connectableBus1="4011_401" voltageLevelId2="1011_130" bus2="1011_131" connectableBus2="1011_131" p1="-24.670695630996324" q1="235.50348273703122" p2="24.670695630996324" q2="-231.9660545697472">
            <iidm:ratioTapChanger lowTapPosition="0" tapPosition="0" loadTapChangingCapabilities="false">
                <iidm:step r="0.0" x="0.0" g="0.0" b="0.0" rho="1.0526316165924072"/>
                <iidm:step r="0.0" x="0.0" g="0.0" b="0.0" rho="1.0416667461395264"/>
                <iidm:step r="0.0" x="0.0" g="0.0" b="0.0" rho="1.0309277772903442"/>
                <iidm:step r="0.0" x="0.0" g="0.0" b="0.0" rho="1.0204081535339355"/>
                <iidm:step r="0.0" x="0.0" g="0.0" b="0.0" rho="1.0101009607315063"/>
                <iidm:step r="0.0" x="0.0" g="0.0" b="0.0" rho="1.0"/>
                <iidm:step r="0.0" x="0.0" g="0.0" b="0.0" rho="0.9900990128517151"/>
                <iidm:step r="0.0" x="0.0" g="0.0" b="0.0" rho="0.9803921580314636"/>
                <iidm:step r="0.0" x="0.0" g="0.0" b="0.0" rho="0.9708738327026367"/>
                <iidm:step r="0.0" x="0.0" g="0.0" b="0.0" rho="0.9615384936332703"/>
                <iidm:step r="0.0" x="0.0" g="0.0" b="0.0" rho="0.9523810148239136"/>
            </iidm:ratioTapChanger>
            <iidm:currentLimits1 permanentLimit="5551.43994140625"/>
            <iidm:currentLimits2 permanentLimit="5551.43994140625"/>
        </iidm:twoWindingsTransformer>
        <iidm:twoWindingsTransformer id="Tr11-1011" r="0.0" x="0.10000003129243851" g="0.0" b="0.0" ratedU1="130.0" ratedU2="20.0" voltageLevelId1="1011_130" bus1="1011_131" connectableBus1="1011_131" voltageLevelId2="B11___20" bus2="B11___21" connectableBus2="B11___21" p1="199.9940032149402" q1="78.95386954736831" p2="-199.99400321494022" q2="-68.79589842785697">
            <iidm:ratioTapChanger regulating="true" lowTapPosition="0" tapPosition="24" targetDeadband="0.0" loadTapChangingCapabilities="true" targetV="20.0">
                <iidm:terminalRef id="Tr11-1011" side="TWO"/>
                <iidm:step r="0.0" x="0.0" g="0.0" b="0.0" rho="1.25"/>
                <iidm:step r="0.0" x="0.0" g="0.0" b="0.0" rho="1.2345678806304932"/>
                <iidm:step r="0.0" x="0.0" g="0.0" b="0.0" rho="1.2195122241973877"/>
                <iidm:step r="0.0" x="0.0" g="0.0" b="0.0" rho="1.2048193216323853"/>
                <iidm:step r="0.0" x="0.0" g="0.0" b="0.0" rho="1.1904761791229248"/>
                <iidm:step r="0.0" x="0.0" g="0.0" b="0.0" rho="1.1764705181121826"/>
                <iidm:step r="0.0" x="0.0" g="0.0" b="0.0" rho="1.1627906560897827"/>
                <iidm:step r="0.0" x="0.0" g="0.0" b="0.0" rho="1.1494252681732178"/>
                <iidm:step r="0.0" x="0.0" g="0.0" b="0.0" rho="1.1363636255264282"/>
                <iidm:step r="0.0" x="0.0" g="0.0" b="0.0" rho="1.1235954761505127"/>
                <iidm:step r="0.0" x="0.0" g="0.0" b="0.0" rho="1.1111111640930176"/>
                <iidm:step r="0.0" x="0.0" g="0.0" b="0.0" rho="1.0989010334014893"/>
                <iidm:step r="0.0" x="0.0" g="0.0" b="0.0" rho="1.08695650100708"/>
                <iidm:step r="0.0" x="0.0" g="0.0" b="0.0" rho="1.0752688646316528"/>
                <iidm:step r="0.0" x="0.0" g="0.0" b="0.0" rho="1.063829779624939"/>
                <iidm:step r="0.0" x="0.0" g="0.0" b="0.0" rho="1.0526316165924072"/>
                <iidm:step r="0.0" x="0.0" g="0.0" b="0.0" rho="1.0416667461395264"/>
                <iidm:step r="0.0" x="0.0" g="0.0" b="0.0" rho="1.0309277772903442"/>
                <iidm:step r="0.0" x="0.0" g="0.0" b="0.0" rho="1.0204081535339355"/>
                <iidm:step r="0.0" x="0.0" g="0.0" b="0.0" rho="1.0101009607315063"/>
                <iidm:step r="0.0" x="0.0" g="0.0" b="0.0" rho="1.0"/>
                <iidm:step r="0.0" x="0.0" g="0.0" b="0.0" rho="0.9900990128517151"/>
                <iidm:step r="0.0" x="0.0" g="0.0" b="0.0" rho="0.9803921580314636"/>
                <iidm:step r="0.0" x="0.0" g="0.0" b="0.0" rho="0.9708738327026367"/>
                <iidm:step r="0.0" x="0.0" g="0.0" b="0.0" rho="0.9615384936332703"/>
                <iidm:step r="0.0" x="0.0" g="0.0" b="0.0" rho="0.9523810148239136"/>
                <iidm:step r="0.0" x="0.0" g="0.0" b="0.0" rho="0.943396270275116"/>
                <iidm:step r="0.0" x="0.0" g="0.0" b="0.0" rho="0.9345793724060059"/>
                <iidm:step r="0.0" x="0.0" g="0.0" b="0.0" rho="0.9259259104728699"/>
                <iidm:step r="0.0" x="0.0" g="0.0" b="0.0" rho="0.9174311757087708"/>
                <iidm:step r="0.0" x="0.0" g="0.0" b="0.0" rho="0.9090908765792847"/>
                <iidm:step r="0.0" x="0.0" g="0.0" b="0.0" rho="0.9009009003639221"/>
                <iidm:step r="0.0" x="0.0" g="0.0" b="0.0" rho="0.8928571343421936"/>
            </iidm:ratioTapChanger>
            <iidm:currentLimits1 permanentLimit="11547.0"/>
            <iidm:currentLimits2 permanentLimit="11547.0"/>
        </iidm:twoWindingsTransformer>
        <iidm:twoWindingsTransformer id="Tr4011-g9" r="0.0" x="0.03375000134110451" g="0.0" b="0.0" ratedU1="400.0" ratedU2="15.0" voltageLevelId1="4011_400" bus1="4011_401" connectableBus1="4011_401" voltageLevelId2="BG09__15" bus2="BG09__11" connectableBus2="BG09__11" p1="-407.0199822289718" q1="148.2867681487611" p2="407.0199822289718" q2="-121.16962133338049">
            <iidm:ratioTapChanger lowTapPosition="0" tapPosition="10" loadTapChangingCapabilities="false">
                <iidm:step r="0.0" x="0.0" g="0.0" b="0.0" rho="1.0526316165924072"/>
                <iidm:step r="0.0" x="0.0" g="0.0" b="0.0" rho="1.0416667461395264"/>
                <iidm:step r="0.0" x="0.0" g="0.0" b="0.0" rho="1.0309277772903442"/>
                <iidm:step r="0.0" x="0.0" g="0.0" b="0.0" rho="1.0204081535339355"/>
                <iidm:step r="0.0" x="0.0" g="0.0" b="0.0" rho="1.0101009607315063"/>
                <iidm:step r="0.0" x="0.0" g="0.0" b="0.0" rho="1.0"/>
                <iidm:step r="0.0" x="0.0" g="0.0" b="0.0" rho="0.9900990128517151"/>
                <iidm:step r="0.0" x="0.0" g="0.0" b="0.0" rho="0.9803921580314636"/>
                <iidm:step r="0.0" x="0.0" g="0.0" b="0.0" rho="0.9708738327026367"/>
                <iidm:step r="0.0" x="0.0" g="0.0" b="0.0" rho="0.9615384936332703"/>
                <iidm:step r="0.0" x="0.0" g="0.0" b="0.0" rho="0.9523810148239136"/>
            </iidm:ratioTapChanger>
            <iidm:currentLimits1 permanentLimit="38490.0"/>
            <iidm:currentLimits2 permanentLimit="38490.0"/>
        </iidm:twoWindingsTransformer>
    </iidm:substation>
    <iidm:substation id="_2733fb31-de68-473c-bbb7-234a34f4d82f" country="FR" tso="RTE">
        <iidm:voltageLevel id="1012_130" nominalV="130.0" highVoltageLimit="136.5" topologyKind="BUS_BREAKER">
            <iidm:busBreakerTopology>
                <iidm:bus id="1012_131" v="141.96562890383157" angle="13.5154963007906"/>
            </iidm:busBreakerTopology>
        </iidm:voltageLevel>
        <iidm:voltageLevel id="4012_400" nominalV="400.0" highVoltageLimit="420.0" topologyKind="BUS_BREAKER">
            <iidm:busBreakerTopology>
                <iidm:bus id="4012_401" v="424.13319866366305" angle="12.551161641789566"/>
            </iidm:busBreakerTopology>
            <iidm:shunt id="4012-Ind" sectionCount="1" voltageRegulatorOn="false" bus="4012_401" connectableBus="4012_401" q="112.43060386739906">
                <iidm:property name="qMax" value="-100"/>
                <iidm:shuntLinearModel bPerSection="-6.249999860301614E-4" maximumSectionCount="1"/>
            </iidm:shunt>
        </iidm:voltageLevel>
        <iidm:voltageLevel id="B12___20" nominalV="20.0" highVoltageLimit="21.0" topologyKind="BUS_BREAKER">
            <iidm:busBreakerTopology>
                <iidm:bus id="B12___21" v="20.505494550567803" angle="10.82789624517157"/>
            </iidm:busBreakerTopology>
            <iidm:load id="12_1" loadType="UNDEFINED" p0="300.00201416015625" q0="83.80120086669922" bus="B12___21" connectableBus="B12___21" p="300.00201416015625" q="83.80120086669922"/>
        </iidm:voltageLevel>
        <iidm:voltageLevel id="BG01__15" nominalV="15.0" highVoltageLimit="15.750001907348633" topologyKind="BUS_BREAKER">
            <iidm:busBreakerTopology>
                <iidm:bus id="BG01__11" v="16.025999069213867" angle="16.886715728073273"/>
            </iidm:busBreakerTopology>
            <iidm:generator id="g01" energySource="HYDRO" minP="0.0" maxP="9999.0" voltageRegulatorOn="true" targetP="360.7" targetV="16.025999069213867" targetQ="58.34000015258789" bus="BG01__11" connectableBus="BG01__11" p="-365.919984343934" q="123.95472361324471">
                <iidm:property name="genreCvg" value="AUTRE"/>
                <iidm:reactiveCapabilityCurve>
                    <iidm:point p="0.0" minQ="-800.0" maxQ="800.0"/>
                    <iidm:point p="9999.0" minQ="-800.0" maxQ="800.0"/>
                </iidm:reactiveCapabilityCurve>
            </iidm:generator>
        </iidm:voltageLevel>
        <iidm:voltageLevel id="BG10__15" nominalV="15.0" highVoltageLimit="15.750001907348633" topologyKind="BUS_BREAKER">
            <iidm:busBreakerTopology>
                <iidm:bus id="BG10__11" v="15.235500335693361" angle="16.386608535725163"/>
            </iidm:busBreakerTopology>
            <iidm:generator id="g10" energySource="HYDRO" minP="0.0" maxP="9999.0" voltageRegulatorOn="true" targetP="360.7" targetV="15.23550033569336" targetQ="255.7010040283203" bus="BG10__11" connectableBus="BG10__11" p="-365.919984343934" q="-43.990764202094866">
                <iidm:property name="genreCvg" value="AUTRE"/>
                <iidm:reactiveCapabilityCurve>
                    <iidm:point p="0.0" minQ="-800.0" maxQ="800.0"/>
                    <iidm:point p="9999.0" minQ="-800.0" maxQ="800.0"/>
                </iidm:reactiveCapabilityCurve>
            </iidm:generator>
        </iidm:voltageLevel>
        <iidm:twoWindingsTransformer id="Tr1012-4012" r="0.0" x="1.3519998788833618" g="0.0" b="0.0" ratedU1="400.0" ratedU2="130.0" voltageLevelId1="4012_400" bus1="4012_401" connectableBus1="4012_401" voltageLevelId2="1012_130" bus2="1012_131" connectableBus2="1012_131" p1="-256.4207913569741" q1="338.3496298430835" p2="256.4207913569742" q2="-326.7755971773565">
            <iidm:ratioTapChanger lowTapPosition="0" tapPosition="0" loadTapChangingCapabilities="false">
                <iidm:step r="0.0" x="0.0" g="0.0" b="0.0" rho="1.0526316165924072"/>
                <iidm:step r="0.0" x="0.0" g="0.0" b="0.0" rho="1.0416667461395264"/>
                <iidm:step r="0.0" x="0.0" g="0.0" b="0.0" rho="1.0309277772903442"/>
                <iidm:step r="0.0" x="0.0" g="0.0" b="0.0" rho="1.0204081535339355"/>
                <iidm:step r="0.0" x="0.0" g="0.0" b="0.0" rho="1.0101009607315063"/>
                <iidm:step r="0.0" x="0.0" g="0.0" b="0.0" rho="1.0"/>
                <iidm:step r="0.0" x="0.0" g="0.0" b="0.0" rho="0.9900990128517151"/>
                <iidm:step r="0.0" x="0.0" g="0.0" b="0.0" rho="0.9803921580314636"/>
                <iidm:step r="0.0" x="0.0" g="0.0" b="0.0" rho="0.9708738327026367"/>
                <iidm:step r="0.0" x="0.0" g="0.0" b="0.0" rho="0.9615384936332703"/>
                <iidm:step r="0.0" x="0.0" g="0.0" b="0.0" rho="0.9523810148239136"/>
            </iidm:ratioTapChanger>
            <iidm:currentLimits1 permanentLimit="5551.43994140625"/>
            <iidm:currentLimits2 permanentLimit="5551.43994140625"/>
        </iidm:twoWindingsTransformer>
        <iidm:twoWindingsTransformer id="Tr1012-g1" r="0.0" x="0.04218750819563866" g="0.0" b="0.0" ratedU1="130.0" ratedU2="15.0" voltageLevelId1="1012_130" bus1="1012_131" connectableBus1="1012_131" voltageLevelId2="BG01__15" bus2="BG01__11" connectableBus2="BG01__11" p1="-365.919982769983" q1="148.47263707793644" p2="365.91998276998294" q2="-123.95472361324471">
            <iidm:ratioTapChanger lowTapPosition="0" tapPosition="5" loadTapChangingCapabilities="false">
                <iidm:step r="0.0" x="0.0" g="0.0" b="0.0" rho="1.0526316165924072"/>
                <iidm:step r="0.0" x="0.0" g="0.0" b="0.0" rho="1.0416667461395264"/>
                <iidm:step r="0.0" x="0.0" g="0.0" b="0.0" rho="1.0309277772903442"/>
                <iidm:step r="0.0" x="0.0" g="0.0" b="0.0" rho="1.0204081535339355"/>
                <iidm:step r="0.0" x="0.0" g="0.0" b="0.0" rho="1.0101009607315063"/>
                <iidm:step r="0.0" x="0.0" g="0.0" b="0.0" rho="1.0"/>
                <iidm:step r="0.0" x="0.0" g="0.0" b="0.0" rho="0.9900990128517151"/>
                <iidm:step r="0.0" x="0.0" g="0.0" b="0.0" rho="0.9803921580314636"/>
                <iidm:step r="0.0" x="0.0" g="0.0" b="0.0" rho="0.9708738327026367"/>
                <iidm:step r="0.0" x="0.0" g="0.0" b="0.0" rho="0.9615384936332703"/>
                <iidm:step r="0.0" x="0.0" g="0.0" b="0.0" rho="0.9523810148239136"/>
            </iidm:ratioTapChanger>
            <iidm:currentLimits1 permanentLimit="30791.998046875"/>
            <iidm:currentLimits2 permanentLimit="30791.998046875"/>
        </iidm:twoWindingsTransformer>
        <iidm:twoWindingsTransformer id="Tr12-1012" r="0.0" x="0.06666676700115204" g="0.0" b="0.0" ratedU1="130.0" ratedU2="20.0" voltageLevelId1="1012_130" bus1="1012_131" connectableBus1="1012_131" voltageLevelId2="B12___20" bus2="B12___21" connectableBus2="B12___21" p1="300.0020141177383" q1="99.18442617971492" p2="-300.00201411773827" q2="-83.80120086261192">
            <iidm:ratioTapChanger regulating="true" lowTapPosition="0" tapPosition="25" targetDeadband="0.0" loadTapChangingCapabilities="true" targetV="20.0">
                <iidm:terminalRef id="Tr12-1012" side="TWO"/>
                <iidm:step r="0.0" x="0.0" g="0.0" b="0.0" rho="1.25"/>
                <iidm:step r="0.0" x="0.0" g="0.0" b="0.0" rho="1.2345678806304932"/>
                <iidm:step r="0.0" x="0.0" g="0.0" b="0.0" rho="1.2195122241973877"/>
                <iidm:step r="0.0" x="0.0" g="0.0" b="0.0" rho="1.2048193216323853"/>
                <iidm:step r="0.0" x="0.0" g="0.0" b="0.0" rho="1.1904761791229248"/>
                <iidm:step r="0.0" x="0.0" g="0.0" b="0.0" rho="1.1764705181121826"/>
                <iidm:step r="0.0" x="0.0" g="0.0" b="0.0" rho="1.1627906560897827"/>
                <iidm:step r="0.0" x="0.0" g="0.0" b="0.0" rho="1.1494252681732178"/>
                <iidm:step r="0.0" x="0.0" g="0.0" b="0.0" rho="1.1363636255264282"/>
                <iidm:step r="0.0" x="0.0" g="0.0" b="0.0" rho="1.1235954761505127"/>
                <iidm:step r="0.0" x="0.0" g="0.0" b="0.0" rho="1.1111111640930176"/>
                <iidm:step r="0.0" x="0.0" g="0.0" b="0.0" rho="1.0989010334014893"/>
                <iidm:step r="0.0" x="0.0" g="0.0" b="0.0" rho="1.08695650100708"/>
                <iidm:step r="0.0" x="0.0" g="0.0" b="0.0" rho="1.0752688646316528"/>
                <iidm:step r="0.0" x="0.0" g="0.0" b="0.0" rho="1.063829779624939"/>
                <iidm:step r="0.0" x="0.0" g="0.0" b="0.0" rho="1.0526316165924072"/>
                <iidm:step r="0.0" x="0.0" g="0.0" b="0.0" rho="1.0416667461395264"/>
                <iidm:step r="0.0" x="0.0" g="0.0" b="0.0" rho="1.0309277772903442"/>
                <iidm:step r="0.0" x="0.0" g="0.0" b="0.0" rho="1.0204081535339355"/>
                <iidm:step r="0.0" x="0.0" g="0.0" b="0.0" rho="1.0101009607315063"/>
                <iidm:step r="0.0" x="0.0" g="0.0" b="0.0" rho="1.0"/>
                <iidm:step r="0.0" x="0.0" g="0.0" b="0.0" rho="0.9900990128517151"/>
                <iidm:step r="0.0" x="0.0" g="0.0" b="0.0" rho="0.9803921580314636"/>
                <iidm:step r="0.0" x="0.0" g="0.0" b="0.0" rho="0.9708738327026367"/>
                <iidm:step r="0.0" x="0.0" g="0.0" b="0.0" rho="0.9615384936332703"/>
                <iidm:step r="0.0" x="0.0" g="0.0" b="0.0" rho="0.9523810148239136"/>
                <iidm:step r="0.0" x="0.0" g="0.0" b="0.0" rho="0.943396270275116"/>
                <iidm:step r="0.0" x="0.0" g="0.0" b="0.0" rho="0.9345793724060059"/>
                <iidm:step r="0.0" x="0.0" g="0.0" b="0.0" rho="0.9259259104728699"/>
                <iidm:step r="0.0" x="0.0" g="0.0" b="0.0" rho="0.9174311757087708"/>
                <iidm:step r="0.0" x="0.0" g="0.0" b="0.0" rho="0.9090908765792847"/>
                <iidm:step r="0.0" x="0.0" g="0.0" b="0.0" rho="0.9009009003639221"/>
                <iidm:step r="0.0" x="0.0" g="0.0" b="0.0" rho="0.8928571343421936"/>
            </iidm:ratioTapChanger>
            <iidm:currentLimits1 permanentLimit="17320.5"/>
            <iidm:currentLimits2 permanentLimit="17320.5"/>
        </iidm:twoWindingsTransformer>
        <iidm:twoWindingsTransformer id="Tr4012-g10" r="0.0" x="0.04218750074505806" g="0.0" b="0.0" ratedU1="400.0" ratedU2="15.0" voltageLevelId1="4012_400" bus1="4012_401" connectableBus1="4012_401" voltageLevelId2="BG10__15" bus2="BG10__11" connectableBus2="BG10__11" p1="-365.9199827407406" q1="-19.30341632533118" p2="365.9199827407406" q2="43.990764202094866">
            <iidm:ratioTapChanger lowTapPosition="0" tapPosition="10" loadTapChangingCapabilities="false">
                <iidm:step r="0.0" x="0.0" g="0.0" b="0.0" rho="1.0526316165924072"/>
                <iidm:step r="0.0" x="0.0" g="0.0" b="0.0" rho="1.0416667461395264"/>
                <iidm:step r="0.0" x="0.0" g="0.0" b="0.0" rho="1.0309277772903442"/>
                <iidm:step r="0.0" x="0.0" g="0.0" b="0.0" rho="1.0204081535339355"/>
                <iidm:step r="0.0" x="0.0" g="0.0" b="0.0" rho="1.0101009607315063"/>
                <iidm:step r="0.0" x="0.0" g="0.0" b="0.0" rho="1.0"/>
                <iidm:step r="0.0" x="0.0" g="0.0" b="0.0" rho="0.9900990128517151"/>
                <iidm:step r="0.0" x="0.0" g="0.0" b="0.0" rho="0.9803921580314636"/>
                <iidm:step r="0.0" x="0.0" g="0.0" b="0.0" rho="0.9708738327026367"/>
                <iidm:step r="0.0" x="0.0" g="0.0" b="0.0" rho="0.9615384936332703"/>
                <iidm:step r="0.0" x="0.0" g="0.0" b="0.0" rho="0.9523810148239136"/>
            </iidm:ratioTapChanger>
            <iidm:currentLimits1 permanentLimit="30792.0"/>
            <iidm:currentLimits2 permanentLimit="30792.0"/>
        </iidm:twoWindingsTransformer>
    </iidm:substation>
    <iidm:substation id="_3dd84004-1feb-4d62-bf15-4ae3dcc30bc4" country="FR" tso="RTE">
        <iidm:voltageLevel id="1013_130" nominalV="130.0" highVoltageLimit="136.5" topologyKind="BUS_BREAKER">
            <iidm:busBreakerTopology>
                <iidm:bus id="1013_131" v="139.55371183953196" angle="16.185324410020563"/>
            </iidm:busBreakerTopology>
        </iidm:voltageLevel>
        <iidm:voltageLevel id="B13___20" nominalV="20.0" highVoltageLimit="21.0" topologyKind="BUS_BREAKER">
            <iidm:busBreakerTopology>
                <iidm:bus id="B13___21" v="20.281226143097552" angle="13.447269336874276"/>
            </iidm:busBreakerTopology>
            <iidm:load id="13_1" loadType="UNDEFINED" p0="100.00299835205078" q0="34.40169906616211" bus="B13___21" connectableBus="B13___21" p="100.00299835205078" q="34.40169906616211"/>
        </iidm:voltageLevel>
        <iidm:voltageLevel id="BG02__15" nominalV="15.0" highVoltageLimit="15.750001907348633" topologyKind="BUS_BREAKER">
            <iidm:busBreakerTopology>
                <iidm:bus id="BG02__11" v="15.847498893737791" angle="18.5290514161009"/>
            </iidm:busBreakerTopology>
            <iidm:generator id="g02" energySource="HYDRO" minP="0.0" maxP="9999.0" voltageRegulatorOn="true" targetP="180.3" targetV="15.847498893737793" targetQ="17.233400344848633" bus="BG02__11" connectableBus="BG02__11" p="-185.51998434393406" q="68.0054726788565">
                <iidm:property name="genreCvg" value="AUTRE"/>
                <iidm:reactiveCapabilityCurve>
                    <iidm:point p="0.0" minQ="-600.0" maxQ="600.0"/>
                    <iidm:point p="9999.0" minQ="-600.0" maxQ="600.0"/>
                </iidm:reactiveCapabilityCurve>
            </iidm:generator>
        </iidm:voltageLevel>
        <iidm:twoWindingsTransformer id="Tr1013-g2" r="0.0" x="0.056250009685754776" g="0.0" b="0.0" ratedU1="130.0" ratedU2="15.0" voltageLevelId1="1013_130" bus1="1013_131" connectableBus1="1013_131" voltageLevelId2="BG02__15" bus2="BG02__11" connectableBus2="BG02__11" p1="-185.51998335625672" q1="76.75002826782146" p2="185.51998335625677" q2="-68.0054726788565">
            <iidm:ratioTapChanger lowTapPosition="0" tapPosition="5" loadTapChangingCapabilities="false">
                <iidm:step r="0.0" x="0.0" g="0.0" b="0.0" rho="1.0526316165924072"/>
                <iidm:step r="0.0" x="0.0" g="0.0" b="0.0" rho="1.0416667461395264"/>
                <iidm:step r="0.0" x="0.0" g="0.0" b="0.0" rho="1.0309277772903442"/>
                <iidm:step r="0.0" x="0.0" g="0.0" b="0.0" rho="1.0204081535339355"/>
                <iidm:step r="0.0" x="0.0" g="0.0" b="0.0" rho="1.0101009607315063"/>
                <iidm:step r="0.0" x="0.0" g="0.0" b="0.0" rho="1.0"/>
                <iidm:step r="0.0" x="0.0" g="0.0" b="0.0" rho="0.9900990128517151"/>
                <iidm:step r="0.0" x="0.0" g="0.0" b="0.0" rho="0.9803921580314636"/>
                <iidm:step r="0.0" x="0.0" g="0.0" b="0.0" rho="0.9708738327026367"/>
                <iidm:step r="0.0" x="0.0" g="0.0" b="0.0" rho="0.9615384936332703"/>
                <iidm:step r="0.0" x="0.0" g="0.0" b="0.0" rho="0.9523810148239136"/>
            </iidm:ratioTapChanger>
            <iidm:currentLimits1 permanentLimit="23094.0"/>
            <iidm:currentLimits2 permanentLimit="23094.0"/>
        </iidm:twoWindingsTransformer>
        <iidm:twoWindingsTransformer id="Tr13-1013" r="0.0" x="0.20000006258487701" g="0.0" b="0.0" ratedU1="130.0" ratedU2="20.0" voltageLevelId1="1013_130" bus1="1013_131" connectableBus1="1013_131" voltageLevelId2="B13___20" bus2="B13___21" connectableBus2="B13___21" p1="100.00299834711932" q1="39.83973218605327" p2="-100.00299834711934" q2="-34.40169906557312">
            <iidm:ratioTapChanger regulating="true" lowTapPosition="0" tapPosition="24" targetDeadband="0.0" loadTapChangingCapabilities="true" targetV="20.0">
                <iidm:terminalRef id="Tr13-1013" side="TWO"/>
                <iidm:step r="0.0" x="0.0" g="0.0" b="0.0" rho="1.25"/>
                <iidm:step r="0.0" x="0.0" g="0.0" b="0.0" rho="1.2345678806304932"/>
                <iidm:step r="0.0" x="0.0" g="0.0" b="0.0" rho="1.2195122241973877"/>
                <iidm:step r="0.0" x="0.0" g="0.0" b="0.0" rho="1.2048193216323853"/>
                <iidm:step r="0.0" x="0.0" g="0.0" b="0.0" rho="1.1904761791229248"/>
                <iidm:step r="0.0" x="0.0" g="0.0" b="0.0" rho="1.1764705181121826"/>
                <iidm:step r="0.0" x="0.0" g="0.0" b="0.0" rho="1.1627906560897827"/>
                <iidm:step r="0.0" x="0.0" g="0.0" b="0.0" rho="1.1494252681732178"/>
                <iidm:step r="0.0" x="0.0" g="0.0" b="0.0" rho="1.1363636255264282"/>
                <iidm:step r="0.0" x="0.0" g="0.0" b="0.0" rho="1.1235954761505127"/>
                <iidm:step r="0.0" x="0.0" g="0.0" b="0.0" rho="1.1111111640930176"/>
                <iidm:step r="0.0" x="0.0" g="0.0" b="0.0" rho="1.0989010334014893"/>
                <iidm:step r="0.0" x="0.0" g="0.0" b="0.0" rho="1.08695650100708"/>
                <iidm:step r="0.0" x="0.0" g="0.0" b="0.0" rho="1.0752688646316528"/>
                <iidm:step r="0.0" x="0.0" g="0.0" b="0.0" rho="1.063829779624939"/>
                <iidm:step r="0.0" x="0.0" g="0.0" b="0.0" rho="1.0526316165924072"/>
                <iidm:step r="0.0" x="0.0" g="0.0" b="0.0" rho="1.0416667461395264"/>
                <iidm:step r="0.0" x="0.0" g="0.0" b="0.0" rho="1.0309277772903442"/>
                <iidm:step r="0.0" x="0.0" g="0.0" b="0.0" rho="1.0204081535339355"/>
                <iidm:step r="0.0" x="0.0" g="0.0" b="0.0" rho="1.0101009607315063"/>
                <iidm:step r="0.0" x="0.0" g="0.0" b="0.0" rho="1.0"/>
                <iidm:step r="0.0" x="0.0" g="0.0" b="0.0" rho="0.9900990128517151"/>
                <iidm:step r="0.0" x="0.0" g="0.0" b="0.0" rho="0.9803921580314636"/>
                <iidm:step r="0.0" x="0.0" g="0.0" b="0.0" rho="0.9708738327026367"/>
                <iidm:step r="0.0" x="0.0" g="0.0" b="0.0" rho="0.9615384936332703"/>
                <iidm:step r="0.0" x="0.0" g="0.0" b="0.0" rho="0.9523810148239136"/>
                <iidm:step r="0.0" x="0.0" g="0.0" b="0.0" rho="0.943396270275116"/>
                <iidm:step r="0.0" x="0.0" g="0.0" b="0.0" rho="0.9345793724060059"/>
                <iidm:step r="0.0" x="0.0" g="0.0" b="0.0" rho="0.9259259104728699"/>
                <iidm:step r="0.0" x="0.0" g="0.0" b="0.0" rho="0.9174311757087708"/>
                <iidm:step r="0.0" x="0.0" g="0.0" b="0.0" rho="0.9090908765792847"/>
                <iidm:step r="0.0" x="0.0" g="0.0" b="0.0" rho="0.9009009003639221"/>
                <iidm:step r="0.0" x="0.0" g="0.0" b="0.0" rho="0.8928571343421936"/>
            </iidm:ratioTapChanger>
            <iidm:currentLimits1 permanentLimit="5773.5"/>
            <iidm:currentLimits2 permanentLimit="5773.5"/>
        </iidm:twoWindingsTransformer>
    </iidm:substation>
    <iidm:substation id="_6b684b57-105e-4777-b95c-3f07617803dd" country="FR" tso="RTE">
        <iidm:voltageLevel id="1014_130" nominalV="130.0" highVoltageLimit="136.5" topologyKind="BUS_BREAKER">
            <iidm:busBreakerTopology>
                <iidm:bus id="1014_131" v="139.62693920345217" angle="17.98605768973418"/>
            </iidm:busBreakerTopology>
        </iidm:voltageLevel>
        <iidm:voltageLevel id="BG03__15" nominalV="15.0" highVoltageLimit="15.750001907348633" topologyKind="BUS_BREAKER">
            <iidm:busBreakerTopology>
                <iidm:bus id="BG03__11" v="15.892499923706055" angle="21.611706643022014"/>
            </iidm:busBreakerTopology>
            <iidm:generator id="g03" energySource="HYDRO" minP="0.0" maxP="9999.0" voltageRegulatorOn="true" targetP="330.6" targetV="15.892499923706055" targetQ="20.91320037841797" bus="BG03__11" connectableBus="BG03__11" p="-335.81998434393404" q="61.32791858679221">
                <iidm:property name="genreCvg" value="AUTRE"/>
                <iidm:reactiveCapabilityCurve>
                    <iidm:point p="0.0" minQ="-700.0" maxQ="700.0"/>
                    <iidm:point p="9999.0" minQ="-700.0" maxQ="700.0"/>
                </iidm:reactiveCapabilityCurve>
            </iidm:generator>
        </iidm:voltageLevel>
        <iidm:twoWindingsTransformer id="Tr1014-g3" r="0.0" x="0.048214320093393326" g="0.0" b="0.0" ratedU1="130.0" ratedU2="15.0" voltageLevelId1="1014_130" bus1="1014_131" connectableBus1="1014_131" voltageLevelId2="BG03__15" bus2="BG03__11" connectableBus2="BG03__11" p1="-335.81998359094894" q1="83.57394098210955" p2="335.819983590949" q2="-61.32791858679221">
            <iidm:ratioTapChanger lowTapPosition="0" tapPosition="5" loadTapChangingCapabilities="false">
                <iidm:step r="0.0" x="0.0" g="0.0" b="0.0" rho="1.0526316165924072"/>
                <iidm:step r="0.0" x="0.0" g="0.0" b="0.0" rho="1.0416667461395264"/>
                <iidm:step r="0.0" x="0.0" g="0.0" b="0.0" rho="1.0309277772903442"/>
                <iidm:step r="0.0" x="0.0" g="0.0" b="0.0" rho="1.0204081535339355"/>
                <iidm:step r="0.0" x="0.0" g="0.0" b="0.0" rho="1.0101009607315063"/>
                <iidm:step r="0.0" x="0.0" g="0.0" b="0.0" rho="1.0"/>
                <iidm:step r="0.0" x="0.0" g="0.0" b="0.0" rho="0.9900990128517151"/>
                <iidm:step r="0.0" x="0.0" g="0.0" b="0.0" rho="0.9803921580314636"/>
                <iidm:step r="0.0" x="0.0" g="0.0" b="0.0" rho="0.9708738327026367"/>
                <iidm:step r="0.0" x="0.0" g="0.0" b="0.0" rho="0.9615384936332703"/>
                <iidm:step r="0.0" x="0.0" g="0.0" b="0.0" rho="0.9523810148239136"/>
            </iidm:ratioTapChanger>
            <iidm:currentLimits1 permanentLimit="26943.0"/>
            <iidm:currentLimits2 permanentLimit="26943.0"/>
        </iidm:twoWindingsTransformer>
    </iidm:substation>
    <iidm:substation id="_aa90c941-14e3-4c16-8ed4-513a0206d631" country="FR" tso="RTE">
        <iidm:voltageLevel id="1021_130" nominalV="130.0" highVoltageLimit="136.5" topologyKind="BUS_BREAKER">
            <iidm:busBreakerTopology>
                <iidm:bus id="1021_131" v="137.6952902634758" angle="23.727070979350376"/>
            </iidm:busBreakerTopology>
        </iidm:voltageLevel>
        <iidm:voltageLevel id="BG04__15" nominalV="15.0" highVoltageLimit="15.750001907348633" topologyKind="BUS_BREAKER">
            <iidm:busBreakerTopology>
                <iidm:bus id="BG04__11" v="15.508500099182129" angle="26.941471431913566"/>
            </iidm:busBreakerTopology>
            <iidm:generator id="g04" energySource="HYDRO" minP="0.0" maxP="9999.0" voltageRegulatorOn="true" targetP="240.4" targetV="15.508500099182129" targetQ="30.375099182128906" bus="BG04__11" connectableBus="BG04__11" p="-245.61998434393405" q="97.71637896685188">
                <iidm:property name="genreCvg" value="AUTRE"/>
                <iidm:reactiveCapabilityCurve>
                    <iidm:point p="0.0" minQ="-600.0" maxQ="600.0"/>
                    <iidm:point p="9999.0" minQ="-600.0" maxQ="600.0"/>
                </iidm:reactiveCapabilityCurve>
            </iidm:generator>
        </iidm:voltageLevel>
        <iidm:twoWindingsTransformer id="Tr1021-g4" r="0.0" x="0.056250009685754776" g="0.0" b="0.0" ratedU1="130.0" ratedU2="15.0" voltageLevelId1="1021_130" bus1="1021_131" connectableBus1="1021_131" voltageLevelId2="BG04__15" bus2="BG04__11" connectableBus2="BG04__11" p1="-245.6199816615309" q1="114.05898827762057" p2="245.6199816615309" q2="-97.71637896685188">
            <iidm:ratioTapChanger lowTapPosition="0" tapPosition="5" loadTapChangingCapabilities="false">
                <iidm:step r="0.0" x="0.0" g="0.0" b="0.0" rho="1.0526316165924072"/>
                <iidm:step r="0.0" x="0.0" g="0.0" b="0.0" rho="1.0416667461395264"/>
                <iidm:step r="0.0" x="0.0" g="0.0" b="0.0" rho="1.0309277772903442"/>
                <iidm:step r="0.0" x="0.0" g="0.0" b="0.0" rho="1.0204081535339355"/>
                <iidm:step r="0.0" x="0.0" g="0.0" b="0.0" rho="1.0101009607315063"/>
                <iidm:step r="0.0" x="0.0" g="0.0" b="0.0" rho="1.0"/>
                <iidm:step r="0.0" x="0.0" g="0.0" b="0.0" rho="0.9900990128517151"/>
                <iidm:step r="0.0" x="0.0" g="0.0" b="0.0" rho="0.9803921580314636"/>
                <iidm:step r="0.0" x="0.0" g="0.0" b="0.0" rho="0.9708738327026367"/>
                <iidm:step r="0.0" x="0.0" g="0.0" b="0.0" rho="0.9615384936332703"/>
                <iidm:step r="0.0" x="0.0" g="0.0" b="0.0" rho="0.9523810148239136"/>
            </iidm:ratioTapChanger>
            <iidm:currentLimits1 permanentLimit="23094.0"/>
            <iidm:currentLimits2 permanentLimit="23094.0"/>
        </iidm:twoWindingsTransformer>
    </iidm:substation>
    <iidm:substation id="_324bf35a-84bb-4d14-b005-bbaaef147928" country="FR" tso="RTE">
        <iidm:voltageLevel id="1022_130" nominalV="130.0" highVoltageLimit="136.5" topologyKind="BUS_BREAKER">
            <iidm:busBreakerTopology>
                <iidm:bus id="1022_131" v="150.24314115672078" angle="11.35793685905905"/>
            </iidm:busBreakerTopology>
            <iidm:shunt id="1022-Cap" sectionCount="1" voltageRegulatorOn="false" bus="1022_131" connectableBus="1022_131" q="-66.78402887265315">
                <iidm:property name="qMax" value="50"/>
                <iidm:shuntLinearModel bPerSection="0.002958579920232296" maximumSectionCount="1"/>
            </iidm:shunt>
        </iidm:voltageLevel>
        <iidm:voltageLevel id="4022_400" nominalV="400.0" highVoltageLimit="420.0" topologyKind="BUS_BREAKER">
            <iidm:busBreakerTopology>
                <iidm:bus id="4022_401" v="442.75966422977706" angle="10.951427996021387"/>
            </iidm:busBreakerTopology>
        </iidm:voltageLevel>
        <iidm:voltageLevel id="B22___20" nominalV="20.0" highVoltageLimit="21.0" topologyKind="BUS_BREAKER">
            <iidm:busBreakerTopology>
                <iidm:bus id="B22___21" v="21.94655506806837" angle="9.007875305738692"/>
            </iidm:busBreakerTopology>
            <iidm:load id="22_1" loadType="UNDEFINED" p0="280.0119934082031" q0="79.90679931640625" bus="B22___21" connectableBus="B22___21" p="280.0119934082031" q="79.90679931640625"/>
        </iidm:voltageLevel>
        <iidm:voltageLevel id="BG05__15" nominalV="15.0" highVoltageLimit="15.750001907348633" topologyKind="BUS_BREAKER">
            <iidm:busBreakerTopology>
                <iidm:bus id="BG05__11" v="15.440999984741211" angle="15.166089236138145"/>
            </iidm:busBreakerTopology>
            <iidm:generator id="g05" energySource="HYDRO" minP="0.0" maxP="9999.0" voltageRegulatorOn="true" targetP="120.2" targetV="15.440999984741211" targetQ="60.0614013671875" bus="BG05__11" connectableBus="BG05__11" p="-125.41998434393405" q="118.12730847448027">
                <iidm:property name="genreCvg" value="AUTRE"/>
                <iidm:reactiveCapabilityCurve>
                    <iidm:point p="0.0" minQ="-250.0" maxQ="250.0"/>
                    <iidm:point p="9999.0" minQ="-250.0" maxQ="250.0"/>
                </iidm:reactiveCapabilityCurve>
            </iidm:generator>
        </iidm:voltageLevel>
        <iidm:twoWindingsTransformer id="Tr1022-4022" r="0.0" x="2.0280842781066895" g="0.0" b="0.0" ratedU1="400.0" ratedU2="130.0" voltageLevelId1="4022_400" bus1="4022_401" connectableBus1="4022_401" voltageLevelId2="1022_130" bus2="1022_131" connectableBus2="1022_131" p1="-81.3244023583702" q1="342.43837795392835" p2="81.32440235837018" q2="-331.94435104190967">
            <iidm:ratioTapChanger lowTapPosition="0" tapPosition="3" loadTapChangingCapabilities="false">
                <iidm:step r="0.0" x="0.0" g="0.0" b="0.0" rho="1.1111111640930176"/>
                <iidm:step r="0.0" x="0.0" g="0.0" b="0.0" rho="1.0989010334014893"/>
                <iidm:step r="0.0" x="0.0" g="0.0" b="0.0" rho="1.08695650100708"/>
                <iidm:step r="0.0" x="0.0" g="0.0" b="0.0" rho="1.0752688646316528"/>
                <iidm:step r="0.0" x="0.0" g="0.0" b="0.0" rho="1.063829779624939"/>
                <iidm:step r="0.0" x="0.0" g="0.0" b="0.0" rho="1.0526316165924072"/>
                <iidm:step r="0.0" x="0.0" g="0.0" b="0.0" rho="1.0416667461395264"/>
                <iidm:step r="0.0" x="0.0" g="0.0" b="0.0" rho="1.0309277772903442"/>
                <iidm:step r="0.0" x="0.0" g="0.0" b="0.0" rho="1.0204081535339355"/>
                <iidm:step r="0.0" x="0.0" g="0.0" b="0.0" rho="1.0101009607315063"/>
                <iidm:step r="0.0" x="0.0" g="0.0" b="0.0" rho="1.0"/>
                <iidm:step r="0.0" x="0.0" g="0.0" b="0.0" rho="0.9900990128517151"/>
                <iidm:step r="0.0" x="0.0" g="0.0" b="0.0" rho="0.9803921580314636"/>
                <iidm:step r="0.0" x="0.0" g="0.0" b="0.0" rho="0.9708738327026367"/>
                <iidm:step r="0.0" x="0.0" g="0.0" b="0.0" rho="0.9615384936332703"/>
                <iidm:step r="0.0" x="0.0" g="0.0" b="0.0" rho="0.9523810148239136"/>
                <iidm:step r="0.0" x="0.0" g="0.0" b="0.0" rho="0.943396270275116"/>
                <iidm:step r="0.0" x="0.0" g="0.0" b="0.0" rho="0.9345793724060059"/>
                <iidm:step r="0.0" x="0.0" g="0.0" b="0.0" rho="0.9259259104728699"/>
                <iidm:step r="0.0" x="0.0" g="0.0" b="0.0" rho="0.9174311757087708"/>
                <iidm:step r="0.0" x="0.0" g="0.0" b="0.0" rho="0.9090908765792847"/>
            </iidm:ratioTapChanger>
            <iidm:currentLimits1 permanentLimit="3700.820068359375"/>
            <iidm:currentLimits2 permanentLimit="3700.820068359375"/>
        </iidm:twoWindingsTransformer>
        <iidm:twoWindingsTransformer id="Tr1022-g5" r="0.0" x="0.13500003516674042" g="0.0" b="0.0" ratedU1="130.0" ratedU2="15.0" voltageLevelId1="1022_130" bus1="1022_131" connectableBus1="1022_131" voltageLevelId2="BG05__15" bus2="BG05__11" connectableBus2="BG05__11" p1="-125.41997670234377" q1="134.93503013156283" p2="125.41997670234377" q2="-118.12730847448027">
            <iidm:ratioTapChanger lowTapPosition="0" tapPosition="10" loadTapChangingCapabilities="false">
                <iidm:step r="0.0" x="0.0" g="0.0" b="0.0" rho="1.0526316165924072"/>
                <iidm:step r="0.0" x="0.0" g="0.0" b="0.0" rho="1.0416667461395264"/>
                <iidm:step r="0.0" x="0.0" g="0.0" b="0.0" rho="1.0309277772903442"/>
                <iidm:step r="0.0" x="0.0" g="0.0" b="0.0" rho="1.0204081535339355"/>
                <iidm:step r="0.0" x="0.0" g="0.0" b="0.0" rho="1.0101009607315063"/>
                <iidm:step r="0.0" x="0.0" g="0.0" b="0.0" rho="1.0"/>
                <iidm:step r="0.0" x="0.0" g="0.0" b="0.0" rho="0.9900990128517151"/>
                <iidm:step r="0.0" x="0.0" g="0.0" b="0.0" rho="0.9803921580314636"/>
                <iidm:step r="0.0" x="0.0" g="0.0" b="0.0" rho="0.9708738327026367"/>
                <iidm:step r="0.0" x="0.0" g="0.0" b="0.0" rho="0.9615384936332703"/>
                <iidm:step r="0.0" x="0.0" g="0.0" b="0.0" rho="0.9523810148239136"/>
            </iidm:ratioTapChanger>
            <iidm:currentLimits1 permanentLimit="9622.5"/>
            <iidm:currentLimits2 permanentLimit="9622.5"/>
        </iidm:twoWindingsTransformer>
        <iidm:twoWindingsTransformer id="Tr22-1022" r="0.0" x="0.07142866402864456" g="0.0" b="0.0" ratedU1="130.0" ratedU2="20.0" voltageLevelId1="1022_130" bus1="1022_131" connectableBus1="1022_131" voltageLevelId2="B22___20" bus2="B22___21" connectableBus2="B22___21" p1="280.0119924360987" q1="92.48138615756339" p2="-280.0119924360987" q2="-79.90679922116728">
            <iidm:ratioTapChanger regulating="true" lowTapPosition="0" tapPosition="24" targetDeadband="0.0" loadTapChangingCapabilities="true" targetV="20.0">
                <iidm:terminalRef id="Tr22-1022" side="TWO"/>
                <iidm:step r="0.0" x="0.0" g="0.0" b="0.0" rho="1.25"/>
                <iidm:step r="0.0" x="0.0" g="0.0" b="0.0" rho="1.2345678806304932"/>
                <iidm:step r="0.0" x="0.0" g="0.0" b="0.0" rho="1.2195122241973877"/>
                <iidm:step r="0.0" x="0.0" g="0.0" b="0.0" rho="1.2048193216323853"/>
                <iidm:step r="0.0" x="0.0" g="0.0" b="0.0" rho="1.1904761791229248"/>
                <iidm:step r="0.0" x="0.0" g="0.0" b="0.0" rho="1.1764705181121826"/>
                <iidm:step r="0.0" x="0.0" g="0.0" b="0.0" rho="1.1627906560897827"/>
                <iidm:step r="0.0" x="0.0" g="0.0" b="0.0" rho="1.1494252681732178"/>
                <iidm:step r="0.0" x="0.0" g="0.0" b="0.0" rho="1.1363636255264282"/>
                <iidm:step r="0.0" x="0.0" g="0.0" b="0.0" rho="1.1235954761505127"/>
                <iidm:step r="0.0" x="0.0" g="0.0" b="0.0" rho="1.1111111640930176"/>
                <iidm:step r="0.0" x="0.0" g="0.0" b="0.0" rho="1.0989010334014893"/>
                <iidm:step r="0.0" x="0.0" g="0.0" b="0.0" rho="1.08695650100708"/>
                <iidm:step r="0.0" x="0.0" g="0.0" b="0.0" rho="1.0752688646316528"/>
                <iidm:step r="0.0" x="0.0" g="0.0" b="0.0" rho="1.063829779624939"/>
                <iidm:step r="0.0" x="0.0" g="0.0" b="0.0" rho="1.0526316165924072"/>
                <iidm:step r="0.0" x="0.0" g="0.0" b="0.0" rho="1.0416667461395264"/>
                <iidm:step r="0.0" x="0.0" g="0.0" b="0.0" rho="1.0309277772903442"/>
                <iidm:step r="0.0" x="0.0" g="0.0" b="0.0" rho="1.0204081535339355"/>
                <iidm:step r="0.0" x="0.0" g="0.0" b="0.0" rho="1.0101009607315063"/>
                <iidm:step r="0.0" x="0.0" g="0.0" b="0.0" rho="1.0"/>
                <iidm:step r="0.0" x="0.0" g="0.0" b="0.0" rho="0.9900990128517151"/>
                <iidm:step r="0.0" x="0.0" g="0.0" b="0.0" rho="0.9803921580314636"/>
                <iidm:step r="0.0" x="0.0" g="0.0" b="0.0" rho="0.9708738327026367"/>
                <iidm:step r="0.0" x="0.0" g="0.0" b="0.0" rho="0.9615384936332703"/>
                <iidm:step r="0.0" x="0.0" g="0.0" b="0.0" rho="0.9523810148239136"/>
                <iidm:step r="0.0" x="0.0" g="0.0" b="0.0" rho="0.943396270275116"/>
                <iidm:step r="0.0" x="0.0" g="0.0" b="0.0" rho="0.9345793724060059"/>
                <iidm:step r="0.0" x="0.0" g="0.0" b="0.0" rho="0.9259259104728699"/>
                <iidm:step r="0.0" x="0.0" g="0.0" b="0.0" rho="0.9174311757087708"/>
                <iidm:step r="0.0" x="0.0" g="0.0" b="0.0" rho="0.9090908765792847"/>
                <iidm:step r="0.0" x="0.0" g="0.0" b="0.0" rho="0.9009009003639221"/>
                <iidm:step r="0.0" x="0.0" g="0.0" b="0.0" rho="0.8928571343421936"/>
            </iidm:ratioTapChanger>
            <iidm:currentLimits1 permanentLimit="16165.7998046875"/>
            <iidm:currentLimits2 permanentLimit="16165.7998046875"/>
        </iidm:twoWindingsTransformer>
    </iidm:substation>
    <iidm:substation id="_22d093c3-f6da-43b4-9b8d-c13a0e2906eb" country="FR" tso="RTE">
        <iidm:voltageLevel id="1041_130" nominalV="130.0" highVoltageLimit="136.5" topologyKind="BUS_BREAKER">
            <iidm:busBreakerTopology>
                <iidm:bus id="1041_131" v="150.75551747071205" angle="-9.534081410499168"/>
            </iidm:busBreakerTopology>
            <iidm:shunt id="1041-Cap" sectionCount="1" voltageRegulatorOn="false" bus="1041_131" connectableBus="1041_131" q="-336.2015943053057">
                <iidm:property name="qMax" value="250"/>
                <iidm:shuntLinearModel bPerSection="0.014792900532484055" maximumSectionCount="1"/>
            </iidm:shunt>
        </iidm:voltageLevel>
        <iidm:voltageLevel id="B01___20" nominalV="20.0" highVoltageLimit="21.0" topologyKind="BUS_BREAKER">
            <iidm:busBreakerTopology>
                <iidm:bus id="B01___21" v="22.96863429084546" angle="-11.169447210749901"/>
            </iidm:busBreakerTopology>
            <iidm:load id="01_1" loadType="UNDEFINED" p0="456.09" q0="148.1999969482422" bus="B01___21" connectableBus="B01___21" p="456.09" q="148.1999969482422"/>
        </iidm:voltageLevel>
        <iidm:twoWindingsTransformer id="Tr1-1041" r="0.0" x="0.03333326056599617" g="0.0" b="0.0" ratedU1="130.0" ratedU2="20.0" voltageLevelId1="1041_130" bus1="1041_131" connectableBus1="1041_131" voltageLevelId2="B01___20" bus2="B01___21" connectableBus2="B01___21" p1="456.0899934039796" q1="162.73114720972072" p2="-456.0899934039796" q2="-148.19999621831747">
            <iidm:ratioTapChanger regulating="true" lowTapPosition="0" tapPosition="20" targetDeadband="0.0" loadTapChangingCapabilities="true" targetV="20.0">
                <iidm:terminalRef id="Tr1-1041" side="TWO"/>
                <iidm:step r="0.0" x="0.0" g="0.0" b="0.0" rho="1.25"/>
                <iidm:step r="0.0" x="0.0" g="0.0" b="0.0" rho="1.2345678806304932"/>
                <iidm:step r="0.0" x="0.0" g="0.0" b="0.0" rho="1.2195122241973877"/>
                <iidm:step r="0.0" x="0.0" g="0.0" b="0.0" rho="1.2048193216323853"/>
                <iidm:step r="0.0" x="0.0" g="0.0" b="0.0" rho="1.1904761791229248"/>
                <iidm:step r="0.0" x="0.0" g="0.0" b="0.0" rho="1.1764705181121826"/>
                <iidm:step r="0.0" x="0.0" g="0.0" b="0.0" rho="1.1627906560897827"/>
                <iidm:step r="0.0" x="0.0" g="0.0" b="0.0" rho="1.1494252681732178"/>
                <iidm:step r="0.0" x="0.0" g="0.0" b="0.0" rho="1.1363636255264282"/>
                <iidm:step r="0.0" x="0.0" g="0.0" b="0.0" rho="1.1235954761505127"/>
                <iidm:step r="0.0" x="0.0" g="0.0" b="0.0" rho="1.1111111640930176"/>
                <iidm:step r="0.0" x="0.0" g="0.0" b="0.0" rho="1.0989010334014893"/>
                <iidm:step r="0.0" x="0.0" g="0.0" b="0.0" rho="1.08695650100708"/>
                <iidm:step r="0.0" x="0.0" g="0.0" b="0.0" rho="1.0752688646316528"/>
                <iidm:step r="0.0" x="0.0" g="0.0" b="0.0" rho="1.063829779624939"/>
                <iidm:step r="0.0" x="0.0" g="0.0" b="0.0" rho="1.0526316165924072"/>
                <iidm:step r="0.0" x="0.0" g="0.0" b="0.0" rho="1.0416667461395264"/>
                <iidm:step r="0.0" x="0.0" g="0.0" b="0.0" rho="1.0309277772903442"/>
                <iidm:step r="0.0" x="0.0" g="0.0" b="0.0" rho="1.0204081535339355"/>
                <iidm:step r="0.0" x="0.0" g="0.0" b="0.0" rho="1.0101009607315063"/>
                <iidm:step r="0.0" x="0.0" g="0.0" b="0.0" rho="1.0"/>
                <iidm:step r="0.0" x="0.0" g="0.0" b="0.0" rho="0.9900990128517151"/>
                <iidm:step r="0.0" x="0.0" g="0.0" b="0.0" rho="0.9803921580314636"/>
                <iidm:step r="0.0" x="0.0" g="0.0" b="0.0" rho="0.9708738327026367"/>
                <iidm:step r="0.0" x="0.0" g="0.0" b="0.0" rho="0.9615384936332703"/>
                <iidm:step r="0.0" x="0.0" g="0.0" b="0.0" rho="0.9523810148239136"/>
                <iidm:step r="0.0" x="0.0" g="0.0" b="0.0" rho="0.943396270275116"/>
                <iidm:step r="0.0" x="0.0" g="0.0" b="0.0" rho="0.9345793724060059"/>
                <iidm:step r="0.0" x="0.0" g="0.0" b="0.0" rho="0.9259259104728699"/>
                <iidm:step r="0.0" x="0.0" g="0.0" b="0.0" rho="0.9174311757087708"/>
                <iidm:step r="0.0" x="0.0" g="0.0" b="0.0" rho="0.9090908765792847"/>
                <iidm:step r="0.0" x="0.0" g="0.0" b="0.0" rho="0.9009009003639221"/>
                <iidm:step r="0.0" x="0.0" g="0.0" b="0.0" rho="0.8928571343421936"/>
            </iidm:ratioTapChanger>
            <iidm:currentLimits1 permanentLimit="34641.0"/>
            <iidm:currentLimits2 permanentLimit="34641.0"/>
        </iidm:twoWindingsTransformer>
    </iidm:substation>
    <iidm:substation id="_1a6fe4b6-a0fc-47fa-8946-62398ab9ae75" country="FR" tso="RTE">
        <iidm:voltageLevel id="1042_130" nominalV="130.0" highVoltageLimit="136.5" topologyKind="BUS_BREAKER">
            <iidm:busBreakerTopology>
                <iidm:bus id="1042_131" v="137.35714644542077" angle="3.5690500128288747"/>
            </iidm:busBreakerTopology>
        </iidm:voltageLevel>
        <iidm:voltageLevel id="B02___20" nominalV="20.0" highVoltageLimit="21.0" topologyKind="BUS_BREAKER">
            <iidm:busBreakerTopology>
                <iidm:bus id="B02___21" v="20.890078091534484" angle="1.3978154769389979"/>
            </iidm:busBreakerTopology>
            <iidm:load id="02_1" loadType="UNDEFINED" p0="250.87" q0="71.01129913330078" bus="B02___21" connectableBus="B02___21" p="250.87" q="71.01129913330078"/>
        </iidm:voltageLevel>
        <iidm:voltageLevel id="BG06__15" nominalV="15.0" highVoltageLimit="15.750001907348633" topologyKind="BUS_BREAKER">
            <iidm:busBreakerTopology>
                <iidm:bus id="BG06__11" v="15.126001358032227" angle="11.325883321636848"/>
            </iidm:busBreakerTopology>
            <iidm:generator id="g06" energySource="THERMAL" minP="0.0" maxP="9999.0" voltageRegulatorOn="true" targetP="360.0" targetV="15.126001358032227" targetQ="138.60000610351562" bus="BG06__11" connectableBus="BG06__11" p="-365.2199843439341" q="-30.462321596001868">
                <iidm:property name="genreCvg" value="AUTRE"/>
                <iidm:reactiveCapabilityCurve>
                    <iidm:point p="0.0" minQ="-400.0" maxQ="400.0"/>
                    <iidm:point p="9999.0" minQ="-400.0" maxQ="400.0"/>
                </iidm:reactiveCapabilityCurve>
            </iidm:generator>
        </iidm:voltageLevel>
        <iidm:twoWindingsTransformer id="Tr1042-g6" r="0.0" x="0.08437501639127731" g="0.0" b="0.0" ratedU1="130.0" ratedU2="15.0" voltageLevelId1="1042_130" bus1="1042_131" connectableBus1="1042_131" voltageLevelId2="BG06__15" bus2="BG06__11" connectableBus2="BG06__11" p1="-365.219976922407" q1="19.069641408419876" p2="365.219976922407" q2="30.462321596001868">
            <iidm:ratioTapChanger lowTapPosition="0" tapPosition="10" loadTapChangingCapabilities="false">
                <iidm:step r="0.0" x="0.0" g="0.0" b="0.0" rho="1.0526316165924072"/>
                <iidm:step r="0.0" x="0.0" g="0.0" b="0.0" rho="1.0416667461395264"/>
                <iidm:step r="0.0" x="0.0" g="0.0" b="0.0" rho="1.0309277772903442"/>
                <iidm:step r="0.0" x="0.0" g="0.0" b="0.0" rho="1.0204081535339355"/>
                <iidm:step r="0.0" x="0.0" g="0.0" b="0.0" rho="1.0101009607315063"/>
                <iidm:step r="0.0" x="0.0" g="0.0" b="0.0" rho="1.0"/>
                <iidm:step r="0.0" x="0.0" g="0.0" b="0.0" rho="0.9900990128517151"/>
                <iidm:step r="0.0" x="0.0" g="0.0" b="0.0" rho="0.9803921580314636"/>
                <iidm:step r="0.0" x="0.0" g="0.0" b="0.0" rho="0.9708738327026367"/>
                <iidm:step r="0.0" x="0.0" g="0.0" b="0.0" rho="0.9615384936332703"/>
                <iidm:step r="0.0" x="0.0" g="0.0" b="0.0" rho="0.9523810148239136"/>
            </iidm:ratioTapChanger>
            <iidm:currentLimits1 permanentLimit="15395.9990234375"/>
            <iidm:currentLimits2 permanentLimit="15395.9990234375"/>
        </iidm:twoWindingsTransformer>
        <iidm:twoWindingsTransformer id="Tr2-1042" r="0.0" x="0.06666676700115204" g="0.0" b="0.0" ratedU1="130.0" ratedU2="20.0" voltageLevelId1="1042_130" bus1="1042_131" connectableBus1="1042_131" voltageLevelId2="B02___20" bus2="B02___21" connectableBus2="B02___21" p1="250.86999932414523" q1="81.39614261102814" p2="-250.86999932414523" q2="-71.01129906780693">
            <iidm:ratioTapChanger regulating="true" lowTapPosition="0" tapPosition="20" targetDeadband="0.0" loadTapChangingCapabilities="true" targetV="20.0">
                <iidm:terminalRef id="Tr2-1042" side="TWO"/>
                <iidm:step r="0.0" x="0.0" g="0.0" b="0.0" rho="1.25"/>
                <iidm:step r="0.0" x="0.0" g="0.0" b="0.0" rho="1.2345678806304932"/>
                <iidm:step r="0.0" x="0.0" g="0.0" b="0.0" rho="1.2195122241973877"/>
                <iidm:step r="0.0" x="0.0" g="0.0" b="0.0" rho="1.2048193216323853"/>
                <iidm:step r="0.0" x="0.0" g="0.0" b="0.0" rho="1.1904761791229248"/>
                <iidm:step r="0.0" x="0.0" g="0.0" b="0.0" rho="1.1764705181121826"/>
                <iidm:step r="0.0" x="0.0" g="0.0" b="0.0" rho="1.1627906560897827"/>
                <iidm:step r="0.0" x="0.0" g="0.0" b="0.0" rho="1.1494252681732178"/>
                <iidm:step r="0.0" x="0.0" g="0.0" b="0.0" rho="1.1363636255264282"/>
                <iidm:step r="0.0" x="0.0" g="0.0" b="0.0" rho="1.1235954761505127"/>
                <iidm:step r="0.0" x="0.0" g="0.0" b="0.0" rho="1.1111111640930176"/>
                <iidm:step r="0.0" x="0.0" g="0.0" b="0.0" rho="1.0989010334014893"/>
                <iidm:step r="0.0" x="0.0" g="0.0" b="0.0" rho="1.08695650100708"/>
                <iidm:step r="0.0" x="0.0" g="0.0" b="0.0" rho="1.0752688646316528"/>
                <iidm:step r="0.0" x="0.0" g="0.0" b="0.0" rho="1.063829779624939"/>
                <iidm:step r="0.0" x="0.0" g="0.0" b="0.0" rho="1.0526316165924072"/>
                <iidm:step r="0.0" x="0.0" g="0.0" b="0.0" rho="1.0416667461395264"/>
                <iidm:step r="0.0" x="0.0" g="0.0" b="0.0" rho="1.0309277772903442"/>
                <iidm:step r="0.0" x="0.0" g="0.0" b="0.0" rho="1.0204081535339355"/>
                <iidm:step r="0.0" x="0.0" g="0.0" b="0.0" rho="1.0101009607315063"/>
                <iidm:step r="0.0" x="0.0" g="0.0" b="0.0" rho="1.0"/>
                <iidm:step r="0.0" x="0.0" g="0.0" b="0.0" rho="0.9900990128517151"/>
                <iidm:step r="0.0" x="0.0" g="0.0" b="0.0" rho="0.9803921580314636"/>
                <iidm:step r="0.0" x="0.0" g="0.0" b="0.0" rho="0.9708738327026367"/>
                <iidm:step r="0.0" x="0.0" g="0.0" b="0.0" rho="0.9615384936332703"/>
                <iidm:step r="0.0" x="0.0" g="0.0" b="0.0" rho="0.9523810148239136"/>
                <iidm:step r="0.0" x="0.0" g="0.0" b="0.0" rho="0.943396270275116"/>
                <iidm:step r="0.0" x="0.0" g="0.0" b="0.0" rho="0.9345793724060059"/>
                <iidm:step r="0.0" x="0.0" g="0.0" b="0.0" rho="0.9259259104728699"/>
                <iidm:step r="0.0" x="0.0" g="0.0" b="0.0" rho="0.9174311757087708"/>
                <iidm:step r="0.0" x="0.0" g="0.0" b="0.0" rho="0.9090908765792847"/>
                <iidm:step r="0.0" x="0.0" g="0.0" b="0.0" rho="0.9009009003639221"/>
                <iidm:step r="0.0" x="0.0" g="0.0" b="0.0" rho="0.8928571343421936"/>
            </iidm:ratioTapChanger>
            <iidm:currentLimits1 permanentLimit="17320.5"/>
            <iidm:currentLimits2 permanentLimit="17320.5"/>
        </iidm:twoWindingsTransformer>
    </iidm:substation>
    <iidm:substation id="_24b8bbc5-1f71-4d9f-a22f-2c1a9dc6b44b" country="FR" tso="RTE">
        <iidm:voltageLevel id="1043_130" nominalV="130.0" highVoltageLimit="136.5" topologyKind="BUS_BREAKER">
            <iidm:busBreakerTopology>
                <iidm:bus id="1043_131" v="149.78928740355673" angle="-6.397247636530917"/>
            </iidm:busBreakerTopology>
            <iidm:shunt id="1043-Cap" sectionCount="1" voltageRegulatorOn="false" bus="1043_131" connectableBus="1043_131" q="-265.52418737971686">
                <iidm:property name="qMax" value="200"/>
                <iidm:shuntLinearModel bPerSection="0.011834300123155117" maximumSectionCount="1"/>
            </iidm:shunt>
        </iidm:voltageLevel>
        <iidm:voltageLevel id="B03___20" nominalV="20.0" highVoltageLimit="21.0" topologyKind="BUS_BREAKER">
            <iidm:busBreakerTopology>
                <iidm:bus id="B03___21" v="22.479201578735314" angle="-8.317479962703612"/>
            </iidm:busBreakerTopology>
            <iidm:load id="03_1" loadType="UNDEFINED" p0="197.64" q0="83.84239959716797" bus="B03___21" connectableBus="B03___21" p="197.64" q="83.84239959716797"/>
        </iidm:voltageLevel>
        <iidm:voltageLevel id="BG07__15" nominalV="15.0" highVoltageLimit="15.750001907348633" topologyKind="BUS_BREAKER">
            <iidm:busBreakerTopology>
                <iidm:bus id="BG07__11" v="15.211499214172363" angle="0.7737124424791719"/>
            </iidm:busBreakerTopology>
            <iidm:generator id="g07" energySource="THERMAL" minP="0.0" maxP="9999.0" voltageRegulatorOn="true" targetP="180.0" targetV="15.211499214172363" targetQ="60.400001525878906" bus="BG07__11" connectableBus="BG07__11" p="-185.21998434393404" q="100.96933998149544">
                <iidm:property name="genreCvg" value="AUTRE"/>
                <iidm:reactiveCapabilityCurve>
                    <iidm:point p="0.0" minQ="-200.0" maxQ="200.0"/>
                    <iidm:point p="9999.0" minQ="-200.0" maxQ="200.0"/>
                </iidm:reactiveCapabilityCurve>
            </iidm:generator>
        </iidm:voltageLevel>
        <iidm:twoWindingsTransformer id="Tr1043-g7" r="0.0" x="0.16875003278255463" g="0.0" b="0.0" ratedU1="130.0" ratedU2="15.0" voltageLevelId1="1043_130" bus1="1043_131" connectableBus1="1043_131" voltageLevelId2="BG07__15" bus2="BG07__11" connectableBus2="BG07__11" p1="-185.2199695807916" q1="133.42362052768496" p2="185.21996958079163" q2="-100.96933998149544">
            <iidm:ratioTapChanger lowTapPosition="0" tapPosition="10" loadTapChangingCapabilities="false">
                <iidm:step r="0.0" x="0.0" g="0.0" b="0.0" rho="1.0526316165924072"/>
                <iidm:step r="0.0" x="0.0" g="0.0" b="0.0" rho="1.0416667461395264"/>
                <iidm:step r="0.0" x="0.0" g="0.0" b="0.0" rho="1.0309277772903442"/>
                <iidm:step r="0.0" x="0.0" g="0.0" b="0.0" rho="1.0204081535339355"/>
                <iidm:step r="0.0" x="0.0" g="0.0" b="0.0" rho="1.0101009607315063"/>
                <iidm:step r="0.0" x="0.0" g="0.0" b="0.0" rho="1.0"/>
                <iidm:step r="0.0" x="0.0" g="0.0" b="0.0" rho="0.9900990128517151"/>
                <iidm:step r="0.0" x="0.0" g="0.0" b="0.0" rho="0.9803921580314636"/>
                <iidm:step r="0.0" x="0.0" g="0.0" b="0.0" rho="0.9708738327026367"/>
                <iidm:step r="0.0" x="0.0" g="0.0" b="0.0" rho="0.9615384936332703"/>
                <iidm:step r="0.0" x="0.0" g="0.0" b="0.0" rho="0.9523810148239136"/>
            </iidm:ratioTapChanger>
            <iidm:currentLimits1 permanentLimit="7697.99951171875"/>
            <iidm:currentLimits2 permanentLimit="7697.99951171875"/>
        </iidm:twoWindingsTransformer>
        <iidm:twoWindingsTransformer id="Tr3-1043" r="0.0" x="0.08695647120475769" g="0.0" b="0.0" ratedU1="130.0" ratedU2="20.0" voltageLevelId1="1043_130" bus1="1043_131" connectableBus1="1043_131" voltageLevelId2="B03___20" bus2="B03___21" connectableBus2="B03___21" p1="197.63999776839557" q1="91.77393661603584" p2="-197.63999776839557" q2="-83.84239927119478">
...